Circuit: * C:\Users\laz3r\Documents\Eclipse\kARCA_v2\karca_v2\Sims\PT_sim.asc

WARNING: Specified period is not longer than the sum of Trise, Tfall, and Ton for i1.  Increasing period to 1.6
Direct Newton iteration for .op point succeeded.

Date: Mon Dec  9 17:19:00 2024
Total elapsed time: 0.068 seconds.

tnom = 27
temp = 27
method = modified trap
totiter = 2204
traniter = 2180
tranpoints = 1091
accept = 1084
rejected = 7
matrix size = 6
fillins = 1
solver = Normal
Avg thread counts: 1.6/2.3/2.3/1.6
Matrix Compiler1:      15 opcodes  0.1/[0.1]/0.2
Matrix Compiler2: 496 bytes object code size  0.1/0.1/[0.1]

