Circuit: * C:\Users\laz3r\Documents\Eclipse\kARCA_v2\karca_v2\Docs\Simulations\Active_Filter.asc

Direct Newton iteration for .op point succeeded.

Date: Sat Dec 28 01:02:14 2024
Total elapsed time: 0.049 seconds.

tnom = 27
temp = 27
method = trap
totiter = 26
traniter = 0
tranpoints = 0
accept = 0
rejected = 0
matrix size = 9
fillins = 1
solver = Normal
Avg thread counts: 16.0/0.0/16.0/16.0
Matrix Compiler1:      24 opcodes
Matrix Compiler2: 735 bytes object code size
