LTspice 24.1.9 for Windows
Circuit: C:\Users\Deepak\OneDrive\Documents\kARCA_v2\karca_v2\Docs\Simulations\Active_Filter.net
Start Time: Mon Mar 23 15:59:39 2026
solver = Normal
Maximum thread count: 12
tnom = 27
temp = 27
method = trap
Direct Newton iteration for .op point succeeded.
Total elapsed time: 0.251 seconds.

Files loaded:
C:\Users\Deepak\OneDrive\Documents\kARCA_v2\karca_v2\Docs\Simulations\Active_Filter.net
C:\Users\Deepak\AppData\Local\LTspice\lib\sub\UniversalOpAmp2.lib

