LTspice 24.1.9 for Windows
Circuit: C:\Users\Deepak\Documents\kARCA_v2\karca_v2\Docs\Simulations\Draft2.net
Start Time: Sat Sep 20 19:35:07 2025
solver = Normal
Maximum thread count: 12
tnom = 27
temp = 27
method = trap
.OP point found by inspection.
Total elapsed time: 1.479 seconds.

Files loaded:
C:\Users\Deepak\Documents\kARCA_v2\karca_v2\Docs\Simulations\Draft2.net

