LTspice 24.1.9 for Windows
Circuit: C:\Users\Deepak\OneDrive\Documents\kARCA_v2\karca_v2\Docs\Simulations\Draft3.net
Start Time: Thu Feb 26 13:42:01 2026
solver = Normal
Maximum thread count: 12
tnom = 27
temp = 27
method = trap
.OP point found by inspection.
Total elapsed time: 0.063 seconds.

Files loaded:
C:\Users\Deepak\OneDrive\Documents\kARCA_v2\karca_v2\Docs\Simulations\Draft3.net
C:\Users\Deepak\AppData\Local\LTspice\lib\cmp\standard.dio

