Circuit: * C:\Users\laz3r\Documents\Eclipse\kARCA_v2\karca_v2\Docs\Simulations\Pressure_Transducerasc.asc

Direct Newton iteration failed to find .op point.  (Use ".option noopiter" to skip.)
Starting Gmin stepping
Gmin = 10
Gmin = 1.07374
Gmin = 0.115292
Gmin = 0.0123794
Gmin = 0.00132923
Gmin = 0.000142725
Gmin = 1.5325e-05
Gmin = 1.6455e-06
Gmin = 1.76685e-07
vernier = 0.5
vernier = 0.666667
Gmin = 6.17442e-08
vernier = 0.888888
vernier = 1
Gmin = 9.33136e-09
Gmin = 1.00195e-09
Gmin = 1.07583e-10
Gmin = 1.15517e-11
Gmin = 1.24035e-12
Gmin = 1.33182e-13
Gmin = 0
Gmin stepping succeeded in finding the operating point.

Semiconductor Device Operating Points:
                        --- Diodes ---
Name:    d:u1:1      d:u1:2      d:u2:1      d:u2:2
Model:    u1:x        u1:x        u2:x        u2:x
Id:     -6.75e-13   -6.94e-19   -9.72e-16   -5.00e-12
Vd:     -6.75e-01   -6.93e-07   -9.71e-04   -5.00e+00
Req:     1.00e-12    1.00e-12    1.00e-12    1.00e-12
CAP:     0.00e+00    0.00e+00    0.00e+00    0.00e+00



Date: Tue Apr  8 18:28:50 2025
Total elapsed time: 0.097 seconds.

tnom = 27
temp = 27
method = trap
totiter = 600
traniter = 0
tranpoints = 0
accept = 0
rejected = 0
matrix size = 11
fillins = 3
solver = Normal
Avg thread counts: 3.3/0.0/9.5/3.3
Matrix Compiler1: 802 bytes object code size
Matrix Compiler2: 1.07 KB object code size  0.5/0.7/[0.2]

