LTspice 24.1.9 for Windows
Circuit: C:\Users\Deepak\OneDrive\Documents\kARCA_v2\karca_v2\Docs\Simulations\problem_1.net
Start Time: Fri Jan 23 16:03:09 2026
solver = Normal
Maximum thread count: 12
tnom = 27
temp = 27
method = trap
Direct Newton iteration for .op point succeeded.
Changing Tseed to 1e-08
Changing Tseed to 1e-10
Changing Tseed to 1e-07
Changing Tseed to 1e-11
Changing Tseed to 1e-06
Changing Tseed to 1e-12
Changing Tseed to 1e-05
Changing Tseed to 1e-13
Changing Tseed to 0.0001
Changing Tseed to 1e-14
Total elapsed time: 0.430 seconds.

Files loaded:
C:\Users\Deepak\OneDrive\Documents\kARCA_v2\karca_v2\Docs\Simulations\problem_1.net
C:\Users\Deepak\AppData\Local\LTspice\lib\cmp\standard.mos
C:\Users\Deepak\AppData\Local\LTspice\lib\sub\ADI.lib

